# generated using our script
data_structure
_symmetry_space_group_name_H-M   'P 1'
_cell_length_a   39.896858
_cell_length_b   39.900696
_cell_length_c   16.494522
_cell_angle_alpha   89.990005
_cell_angle_beta   90.01326
_cell_angle_gamma   119.999748
_symmetry_Int_Tables_number   1
_chemical_formula_structural   formula_here
_chemical_formula_sum   'formula_sum_here'
_cell_volume   volume_here
_cell_formula_units_Z   units_here
loop_
 _symmetry_equiv_pos_site_id
 _symmetry_equiv_pos_as_xyz
  1  'x, y, z'
loop_
 _atom_site_type_symbol
 _atom_site_label
 _atom_site_symmetry_multiplicity
 _atom_site_fract_x
 _atom_site_fract_y
 _atom_site_fract_z
 _atom_site_occupancy
  Ru  Ru1  1  0.2966279883449388  0.21702992083914766  0.45457517459669916  1.0
  N  N2  1  0.29815710024651865  0.21700522659198385  0.32344072505646704  1.0
  N  N3  1  0.2423772211892565  0.21705898769098478  0.4506344722295632  1.0
  N  N4  1  0.2950343003551918  0.2170256659886397  0.5860127550882495  1.0
  N  N5  1  0.35090380567296675  0.21700085987501883  0.45833399839304423  1.0
  N  N6  1  0.26535918468063846  0.1543474200961657  0.45487830554801734  1.0
  N  N7  1  0.32798263743895517  0.27968345874647194  0.4549995579285446  1.0
  H  H8  1  0.2595399414264586  0.14181854084437484  0.3983140700320504  1.0
  H  H9  1  0.23872285244609912  0.14207626447372976  0.48264510068876  1.0
  H  H10  1  0.2794791191894059  0.14227878255298887  0.48440326020640523  1.0
  H  H11  1  0.37333792349700257  0.24006641583870553  0.4291121746859745  1.0
  H  H12  1  0.34976604291735686  0.19312680753754197  0.43184035324783787  1.0
  H  H13  1  0.3612959948638864  0.21772248344239134  0.5157470005727021  1.0
  H  H14  1  0.31829817382469816  0.240436691731492  0.6124457740431922  1.0
  H  H15  1  0.2944570867475503  0.19341035192890918  0.6125064002334558  1.0
  H  H16  1  0.27132610158567244  0.2172274657674902  0.6099601002423833  1.0
  H  H17  1  0.24331057522574231  0.24087516734652065  0.4769462388039787  1.0
  H  H18  1  0.21972419962521067  0.19390662957337956  0.4793712864145239  1.0
  H  H19  1  0.23218941180134628  0.21639524858096976  0.3930395914791145  1.0
  H  H20  1  0.298709244404405  0.2406205426142838  0.29688645372099703  1.0
  H  H21  1  0.2748007226910913  0.19370995798843005  0.2970077061015243  1.0
  H  H22  1  0.3217717473441561  0.21671661288379837  0.29937212752180586  1.0
  H  H23  1  0.3161276788945206  0.2918078238832109  0.4919209077990954  1.0
  H  H24  1  0.33009786569634264  0.2922449099990884  0.39934471526653204  1.0
  H  H25  1  0.3561834523417781  0.29186626571028446  0.4745211911934335  1.0
